17
Properties=species:S:1:pos:R:3 pbc="F F F"
Ge       0.00000000       0.00000000       0.00000000
C        1.12583302       1.12583302       1.12583302
H        1.58636268       0.16950725       0.87793496
H        0.16950725       1.58636268       0.87793496
I        0.58242485       0.58242485      -0.87141886
C        1.12583302      -1.12583302      -1.12583302
H        0.16950725      -1.58636268      -0.87793496
H        1.58636268      -0.16950725      -0.87793496
I       -0.38680429       0.38680429      -1.06703942
C       -1.12583302       1.12583302      -1.12583302
H       -0.16950725       1.58636268      -0.87793496
H       -1.58636268       0.16950725      -0.87793496
I        0.38680429      -0.38680429      -1.06703942
C       -1.12583302      -1.12583302       1.12583302
H       -1.58636268      -0.16950725       0.87793496
H       -0.16950725      -1.58636268       0.87793496
I       -0.58242485      -0.58242485      -0.87141886
