12

C       8.149787000000000      9.877608000000000      6.000000000000000
C       9.358107000000000      9.179983999999999      6.000000000000000
C       9.358107000000000      7.784736000000000      6.000000000000000
C       8.149787000000000      7.087111999999999      6.000000000000000
C       6.941466999999999      7.784736000000000      6.000000000000000
C       6.941466999999999      9.179983999999999      6.000000000000000
H       8.149787000000000     10.964720000000000      6.000000000000000
H      10.299574000000000      9.723540000000000      6.000000000000000
H      10.299574000000000      7.241180000000000      6.000000000000000
H       8.149787000000000      6.000000000000000      6.000000000000000
H       6.000000000000000      7.241180000000000      6.000000000000000
H       6.000000000000000      9.723540000000000      6.000000000000000
