25
Properties=species:S:1:pos:R:3 pbc="F F F"
W        0.00000000       0.00000000       0.00000000
C        2.20000000       0.00000000       0.00000000
H        2.82931179       0.62931179       0.62931179
H        2.82931179      -0.62931179      -0.62931179
H        1.57068821       0.62931179      -0.62931179
C       -2.20000000       0.00000000       0.00000000
H       -1.57068821       0.62931179       0.62931179
H       -1.57068821      -0.62931179      -0.62931179
H       -2.82931179       0.62931179      -0.62931179
C        0.00000000       2.20000000       0.00000000
H        0.62931179       2.82931179       0.62931179
H        0.62931179       1.57068821      -0.62931179
H       -0.62931179       2.82931179      -0.62931179
C        0.00000000      -2.20000000       0.00000000
H        0.62931179      -1.57068821       0.62931179
H        0.62931179      -2.82931179      -0.62931179
H       -0.62931179      -1.57068821      -0.62931179
C        0.00000000       0.00000000       2.20000000
H        0.62931179       0.62931179       2.82931179
H        0.62931179      -0.62931179       1.57068821
H       -0.62931179       0.62931179       1.57068821
C        0.00000000       0.00000000      -2.20000000
H        0.62931179       0.62931179      -1.57068821
H        0.62931179      -0.62931179      -2.82931179
H       -0.62931179       0.62931179      -2.82931179
