13
Properties=species:S:1:pos:R:3 pbc="F F F"
C       29.99350000      17.99060000       0.00000000
W       31.17270000      19.70580000       0.00000000
C       32.35180000      21.42100000       0.00000000
C       31.17270000      19.70580000       2.08120000
C       31.17270000      19.70580000      -2.08120000
C       29.45750000      20.88490000       0.00000000
C       32.88790000      18.52660000       0.00000000
O       29.34140000      17.04200000       0.00000000
O       33.00410000      22.36950000       0.00000000
O       31.17270000      19.70580000       3.23240000
O       31.17270000      19.70580000      -3.23240000
O       28.50900000      21.53710000       0.00000000
O       33.83650000      17.87440000       0.00000000
