13
Properties=species:S:1:pos:R:3 pbc="F F F"
W        0.00000000       0.00000000       0.00000000
C        2.05800000       0.00000000       0.00000000
O        3.20600000       0.00000000       0.00000000
C       -2.05800000       0.00000000       0.00000000
O       -3.20600000       0.00000000       0.00000000
C        0.00000000       2.05800000       0.00000000
O        0.00000000       3.20600000       0.00000000
C        0.00000000      -2.05800000       0.00000000
O        0.00000000      -3.20600000       0.00000000
C        0.00000000       0.00000000       2.05800000
O        0.00000000       0.00000000       3.20600000
C        0.00000000       0.00000000      -2.05800000
O        0.00000000       0.00000000      -3.20600000
